/*--------------------------------*- C++ -*----------------------------------*\
| =========                 |                                                 |
| \\      /  F ield         | OpenFOAM: The Open Source CFD Toolbox           |
|  \\    /   O peration     | Version:  2.2.0                                 |
|   \\  /    A nd           | Web:      www.OpenFOAM.org                      |
|    \\/     M anipulation  |                                                 |
\*---------------------------------------------------------------------------*/
FoamFile
{
    version     2.0;
    format      ascii;
    class       volScalarField;
    location    "0";
    object      pc;
}
// * * * * * * * * * * * * * * * * * * * * * * * * * * * * * * * * * * * * * //

dimensions      [1 -1 -2 0 0 0 0];

internalField   uniform -7.0291e+07; 

boundaryField
{
    inside
    {
        type                    HAMexternalMoistureFlux;
        value                   uniform -7.0291e+07; 
        beta                    tableFile; betaCoeffs {file "0/inside/beta";}
        pv_o                    tableFile; pv_oCoeffs {file "0/inside/pv_o";}
        gl                      tableFile; glCoeffs {file "0/inside/gl";}            
    }
    outside
    {        
        type                    HAMexternalMoistureFlux;
        value                   uniform -7.0291e+07; 
        beta                    tableFile; betaCoeffs {file "0/outside/beta";}
        pv_o                    tableFile; pv_oCoeffs {file "0/outside/pv_o";}
        gl                      tableFile; glCoeffs {file "0/outside/gl";}                       
    }
    sides
    {
        type            empty;
    }
}


// ************************************************************************* //
