/*--------------------------------*- C++ -*----------------------------------*\
| =========                 |                                                 |
| \\      /  F ield         | OpenFOAM: The Open Source CFD Toolbox           |
|  \\    /   O peration     | Version:  1.7.1                                 |
|   \\  /    A nd           | Web:      www.OpenFOAM.com                      |
|    \\/     M anipulation  |                                                 |
\*---------------------------------------------------------------------------*/
FoamFile
{
    version     2.0;
    format      ascii;
    class       dictionary;
    object      blockMeshDict;
}
// * * * * * * * * * * * * * * * * * * * * * * * * * * * * * * * * * * * * * //

convertToMeters 1;

vertices        
(
    (0      0       0)
    (0.1      0       0)
    (0.1      0.01       0)
    (0      0.01       0)
    (0.12      0       0)
    (0.12      0.01       0)

    (0      0       0.01)
    (0.1      0       0.01)
    (0.1      0.01       0.01)
    (0      0.01       0.01)
    (0.12      0       0.01)
    (0.12      0.01       0.01)
);

blocks          
(
    hex (0 1 2 3 6 7 8 9)         (75 1 1) simpleGrading (((0.5 0.5 100)(0.5 0.5 0.01)) 1 1)
    hex (1 4 5 2 7 10 11 8)         (15 1 1) simpleGrading (((0.5 0.5 50)(0.5 0.5 0.02)) 1 1)    
);

edges           
(
);

boundary   
(
    
    inside
    {
        type patch;
        faces
        (
            (4 10 11 5)
        );
    }

    outside
    {
        type patch;
        faces
        (
            (0 6 9 3)
        );
    }
    
    sides
    {
        type empty;
        faces
        (
            (2 3 9 8)
            (2 5 11 8)
            (0 1 7 6)
            (1 4 10 7)
            (0 1 2 3)
            (1 4 5 2)
            (6 7 8 9)
            (7 10 11 8)
        );
    }
    
);

// ************************************************************************* //
