/*--------------------------------*- C++ -*----------------------------------*\
  =========                 |
  \\      /  F ield         | OpenFOAM: The Open Source CFD Toolbox
   \\    /   O peration     | Website:  https://openfoam.org
    \\  /    A nd           | Version:  6
     \\/     M anipulation  |
\*---------------------------------------------------------------------------*/
FoamFile
{
    version     2.0;
    format      ascii;
    class       dictionary;
    object      topoSetDict;
}
// * * * * * * * * * * * * * * * * * * * * * * * * * * * * * * * * * * * * * //

actions
(
    {
        name    loadBearing;
        type    cellSet;
        action  new;
        source  boxToCell;
        sourceInfo
        {
            box   (0.00 0.00 0)(0.1 1 1);
        }
    }
    {
        name    loadBearing;
        type    cellZoneSet;
        action  new;
        source  setToCellZone;
        sourceInfo
        {
            set    loadBearing;
        }
    }
    
    {
        name    finishing;
        type    cellSet;
        action  new;
        source  boxToCell;
        sourceInfo
        {
            box   (0.1 0.00 0)(0.12 1 1);
        }
    }
    {
        name    finishing;
        type    cellZoneSet;
        action  new;
        source  setToCellZone;
        sourceInfo
        {
            set    finishing;
        }
    }              
           
);

// ************************************************************************* //
