/*--------------------------------*- C++ -*----------------------------------*\
| =========                 |                                                 |
| \\      /  F ield         | OpenFOAM: The Open Source CFD Toolbox           |
|  \\    /   O peration     | Version:  1.7.1                                 |
|   \\  /    A nd           | Web:      www.OpenFOAM.com                      |
|    \\/     M anipulation  |                                                 |
\*---------------------------------------------------------------------------*/
FoamFile
{
    version     2.0;
    format      ascii;
    class       dictionary;
    object      blockMeshDict;
}
// * * * * * * * * * * * * * * * * * * * * * * * * * * * * * * * * * * * * * //

convertToMeters 1;

vertices        
(
    (0      0       0)
    (0.365      0       0)
    (0.38      0       0)
    (0.42      0       0)
    (0.42      0.01       0)
    (0.38      0.01       0)
    (0.365      0.01       0)    
    (0      0.01       0)

    (0      0       0.01)
    (0.365      0       0.01)
    (0.38      0       0.01)
    (0.42      0       0.01)
    (0.42      0.01       0.01)
    (0.38      0.01       0.01)
    (0.365      0.01       0.01)    
    (0      0.01       0.01)
);

blocks          
(
    hex (0 1 6 7 8 9 14 15)         (100 1 1) simpleGrading (((0.5 0.5 50)(0.5 0.5 0.02)) 1 1)
    hex (1 2 5 6 9 10 13 14)         (15 1 1) simpleGrading (((0.5 0.5 20)(0.5 0.5 0.05)) 1 1)    
    hex (2 3 4 5 10 11 12 13)         (30 1 1) simpleGrading (((0.5 0.5 20)(0.5 0.5 0.05)) 1 1)
);

edges           
(
);

patches
           
(

    patch inside
    (
        (3 4 12 11)
    )

    patch outside 
    (
        (0 7 15 8)
    )
    
    empty sides
    (
        (0 1 6 7)
        (1 2 5 6)
        (2 3 4 5) 
        (8 9 14 15)
        (9 10 13 14)
        (10 11 12 13)
        (0 1 9 8)
        (1 2 10 9)
        (2 3 11 10)
        (7 6 14 15)
        (6 5 13 14)
        (5 4 12 13)
    )
);

mergePatchPairs
(
);

// ************************************************************************* //
