/*--------------------------------*- C++ -*----------------------------------*\
| =========                 |                                                 |
| \\      /  F ield         | OpenFOAM: The Open Source CFD Toolbox           |
|  \\    /   O peration     | Version:  1.7.1                                 |
|   \\  /    A nd           | Web:      www.OpenFOAM.com                      |
|    \\/     M anipulation  |                                                 |
\*---------------------------------------------------------------------------*/
FoamFile
{
    version     2.0;
    format      ascii;
    class       dictionary;
    location    "system";
    object      fvSolution;
}
// * * * * * * * * * * * * * * * * * * * * * * * * * * * * * * * * * * * * * //

solvers
{

    pc
    {
        solver          PCG;
        preconditioner  DIC;
        tolerance       1e-20;
        relTol          0;
        minIter         1;
    }

    Ts
    {
        solver          PCG;
        preconditioner  DIC;
        tolerance       1e-20;
        relTol          0;
        minIter         1;
    }    
}

// ************************************************************************* //
