/*--------------------------------*- C++ -*----------------------------------*\
  =========                 |
  \\      /  F ield         | OpenFOAM: The Open Source CFD Toolbox
   \\    /   O peration     | Website:  https://openfoam.org
    \\  /    A nd           | Version:  6
     \\/     M anipulation  |
\*---------------------------------------------------------------------------*/
FoamFile
{
    version     2.0;
    format      ascii;
    class       dictionary;
    object      topoSetDict;
}
// * * * * * * * * * * * * * * * * * * * * * * * * * * * * * * * * * * * * * //

actions
(
    {
        name    brick;
        type    cellSet;
        action  new;
        source  boxToCell;
        sourceInfo
        {
            box   (0.00 0.00 0)(0.365 1 1);
        }
    }
    {
        name    brick;
        type    cellZoneSet;
        action  new;
        source  setToCellZone;
        sourceInfo
        {
            set    brick;
        }
    }
    
    {
        name    mortar;
        type    cellSet;
        action  new;
        source  boxToCell;
        sourceInfo
        {
            box   (0.365 0.00 0)(0.38 1 1);
        }
    }
    {
        name    mortar;
        type    cellZoneSet;
        action  new;
        source  setToCellZone;
        sourceInfo
        {
            set    mortar;
        }
    }              

    {
        name    insulation;
        type    cellSet;
        action  new;
        source  boxToCell;
        sourceInfo
        {
            box   (0.38 0.00 0)(0.42 1 1);
        }
    }
    {
        name    insulation;
        type    cellZoneSet;
        action  new;
        source  setToCellZone;
        sourceInfo
        {
            set    insulation;
        }
    }             
);

// ************************************************************************* //
